Version 4.1
SHEET 1 880 680
WIRE -48 16 -80 16
WIRE 144 16 -48 16
WIRE 384 16 224 16
WIRE 384 32 384 16
WIRE -80 64 -80 16
WIRE 384 64 384 32
WIRE -80 224 -80 144
WIRE 384 224 384 128
WIRE 384 224 -80 224
WIRE -80 304 -80 224
FLAG -80 304 0
FLAG -48 16 in
FLAG 384 32 out
SYMBOL voltage -80 48 R0
SYMATTR InstName V1
SYMATTR Value 5
SYMBOL res 240 0 R90
WINDOW 0 0 56 VBottom 2
WINDOW 3 32 56 VTop 2
SYMATTR InstName R1
SYMATTR Value 1k
SYMBOL diode 368 64 R0
SYMATTR InstName D1
TEXT -112 328 Left 2 !.dc v1 0 15 0.1
