Version 4.1
SHEET 1 880 680
WIRE 16 64 0 64
WIRE 160 64 16 64
WIRE 304 64 240 64
WIRE 320 64 304 64
WIRE 0 96 0 64
WIRE 320 96 320 64
WIRE 0 240 0 176
WIRE 320 240 320 160
WIRE 320 240 0 240
WIRE 0 288 0 240
FLAG 0 288 0
FLAG 16 64 in
FLAG 304 64 out
SYMBOL voltage 0 80 R0
SYMATTR InstName V1
SYMATTR Value 5
SYMBOL res 256 48 R90
WINDOW 0 0 56 VBottom 2
WINDOW 3 32 56 VTop 2
SYMATTR InstName R1
SYMATTR Value 1k
SYMBOL diode 304 96 R0
SYMATTR InstName D1
TEXT -32 312 Left 2 !.dc V1 0 15 0.1
